*Heading
** Job name: kagome_27X27per Model name: kagome_27X27_10%
** Generated by: Abaqus/CAE 2018
*Preprint, echo=NO, model=NO, history=NO, contact=NO
**
** PARTS
**
*Part, name=Part-1
*End Part
**  
**
** ASSEMBLY
**
*Assembly, name=Assembly
**  
*Instance, name=Part-1-1, part=Part-1
*Node
      1,           0.,   467.653717
      2,          10.,   467.653717
      3,          15.,   458.993469
      4,          20.,   467.653717
      5,          30.,   467.653717
      6,          35.,   458.993469
      7,          40.,   467.653717
      8,          50.,   467.653717
      9,          55.,   458.993469
     10,          60.,   467.653717
     11,          70.,   467.653717
     12,          75.,   458.993469
     13,          80.,   467.653717
     14,          90.,   467.653717
     15,          95.,   458.993469
     16,         100.,   467.653717
     17,         110.,   467.653717
     18,         115.,   458.993469
     19,         120.,   467.653717
     20,         130.,   467.653717
** ... 2191 like lines cut
*Element, type=B21
1, 1, 2
2, 2, 3
3, 4, 3
4, 4, 5
5, 5, 6
6, 7, 6
7, 7, 8
8, 8, 9
 9, 10,  9
10, 10, 11
11, 11, 12
12, 13, 12
13, 13, 14
14, 14, 15
15, 16, 15
16, 16, 17
17, 17, 18
18, 19, 18
19, 19, 20
20, 20, 21
** ... 4260 like lines cut
*Nset, nset=AllPartSet, generate
    1,  2211,     1
*Elset, elset=AllPartSet, generate
    1,  4280,     1
** Section: BeamSec  Profile: Rect
*Beam Section, elset=AllPartSet, material=Material-5, temperature=GRADIENTS, section=RECT
1., 0.579104
0.,0.,-1.
*End Instance
**  
*Node
      1,         106.,   384.346863,           0.
*Node
      2,         106.,   83.3068619,           0.
*Nset, nset=Set-fix, instance=Part-1-1
 1604, 1608, 1612, 1675, 1676, 1677, 1678, 1679, 1680, 1681, 1683, 1761, 1762, 1763, 1764, 1765
 1766, 1767, 1768, 1769, 1770, 1771, 1772, 1773, 1774, 1775, 1776, 1777, 1834, 1835, 1836, 1837
 1838, 1839, 1840, 1841, 1842, 1843, 1844, 1845, 1846, 1849, 1916, 1920, 1921, 1922, 1923, 1924
 1925, 1926, 1927, 1928, 1929, 1930, 1931, 1932, 1933, 1934, 2002, 2003, 2004, 2005, 2006, 2007
 2008, 2009, 2010, 2011, 2012, 2013, 2014, 2089, 2093, 2094, 2097, 2098, 2158
*Nset, nset=Set-load, instance=Part-1-1
 150, 152, 154, 155, 156, 157, 239, 240, 241, 242, 243, 244, 245, 246, 247, 248
 249, 250, 316, 317, 318, 319, 320, 321, 322, 323, 324, 325, 326, 327, 328, 329
 330, 331, 397, 398, 399, 400, 401, 402, 403, 404, 405, 406, 407, 408, 409, 410
 411, 413, 479, 480, 481, 482, 483, 484, 485, 486, 487, 488, 489, 490, 491, 492
 562, 563, 564, 565, 566, 567, 568, 569, 570, 571, 572, 573, 647
*Nset, nset=fixity
 2,
*Nset, nset=load
 1,
*Surface, type=NODE, name=Set-fix_CNS_, internal
Set-fix, 1.
*Surface, type=NODE, name=Set-load_CNS_, internal
Set-load, 1.
** Constraint: couplingFixity
*Coupling, constraint name=couplingFixity, ref node=fixity, surface=Set-fix_CNS_
*Kinematic
** Constraint: couplingLoad
*Coupling, constraint name=couplingLoad, ref node=load, surface=Set-load_CNS_
*Kinematic
*End Assembly
*Amplitude, name=Amp-1
             0.,              0.,             0.1, 140.296115413079
** 
** MATERIALS
** 
*Material, name=Material-5
*Density
 4.42e-09,
*Elastic
123000., 0.3
*Plastic
   930.,         0.
   932.,      0.002
  949.9, 0.00305977
  967.8, 0.00464408
  985.7, 0.00699504
 1003.6,  0.0104587
 1021.5,  0.0155267
 1039.4,  0.0228928
 1057.3,  0.0335304
 1075.2,  0.0487974
 1093.1,   0.070577
  1111.,   0.101467
*User Defined Field
** ----------------------------------------------------------------
** 
** STEP: Step-1
** 
*Step, name=Step-1, nlgeom=YES
*Dynamic, Explicit
, 0.1
*Bulk Viscosity
0.06, 1.2
** 
** BOUNDARY CONDITIONS
** 
** Name: BC-1 Type: Displacement/Rotation
*Boundary, amplitude=Amp-1
load, 1, 1
load, 2, 2, 1.
** Name: BC-2 Type: Displacement/Rotation
*Boundary, amplitude=Amp-1
fixity, 1, 1
fixity, 2, 2
** 
** OUTPUT REQUESTS
** 
*Restart, write, number interval=1, time marks=NO
** 
** FIELD OUTPUT: F-Output-1
** 
*Output, field, number interval=200
*Node Output
RF, UT
*Element Output, directions=YES
DMICRT, LE, S, SDEG, STATUS
** 
** HISTORY OUTPUT: H-Output-1
** 
*Output, history
*Energy Output, elset=Part-1-1.AllPartSet
ALLIE, ALLKE, ALLSE
*End Step
