*Heading
** Job name: FCC_12X16_per Model name: FCC_12X16_per
** Generated by: Abaqus/CAE 2018
*Preprint, echo=NO, model=NO, history=NO, contact=NO
**
** PARTS
**
*Part, name=Part-1
*End Part
**  
**
** ASSEMBLY
**
*Assembly, name=Assembly
**  
*Instance, name=Part-1-1, part=Part-1
*Node
      1,         220.,         300.
      2,         220.,         320.
      3,         240.,         320.
      4,         230.,         310.
      5,         200.,         300.
      6,         220.,         280.
      7,         220.,         260.
      8,         210.,         270.
      9,         200.,         280.
     10,         200.,         260.
     11,         200.,         240.
     12,         180.,         240.
     13,         190.,         250.
     14,         180.,         260.
     15,         190.,         270.
     16,         210.,         290.
     17,         190.,         290.
     18,         200.,         320.
     19,         190.,         310.
     20,         210.,         310.
** ... 18205 like lines cut
*Element, type=B21
 1,   1, 414
 2, 414, 415
 3, 415, 416
 4, 416, 417
 5, 417, 418
 6, 418, 419
 7, 419, 420
 8, 420, 421
 9, 421, 422
10, 422, 423
11, 423, 424
12, 424, 425
13, 425, 426
14, 426, 427
15, 427, 428
16, 428, 429
17, 429, 430
18, 430, 431
19, 431, 432
20, 432,   2
** ... 18972 like lines cut
*Nset, nset=AllPartSet, generate
     1,  18225,      1
*Elset, elset=AllPartSet, generate
     1,  18992,      1
** Section: BeamSec  Profile: Circ
*Beam Section, elset=AllPartSet, material=Material-3, temperature=GRADIENTS, section=CIRC
0.258378
0.,0.,-1.
*End Instance
**  
*Nset, nset=Set-bottom, instance=Part-1-1
   325,   327,   328,   331,   332,   340,   378,   384,   385,   390,   407,   409,   411, 12606, 12607, 12608
 12609, 12610, 12611, 12612, 12613, 12614, 12615, 12616, 12617, 12618, 12619, 12620, 12621, 12622, 12623, 12624
 12670, 12671, 12672, 12673, 12674, 12675, 12676, 12677, 12678, 12679, 12680, 12681, 12682, 12683, 12684, 12685
 12686, 12687, 12688, 12824, 12825, 12826, 12827, 12828, 12829, 12830, 12831, 12832, 12833, 12834, 12835, 12836
 12837, 12838, 12839, 12840, 12841, 12842, 15572, 15573, 15574, 15575, 15576, 15577, 15578, 15579, 15580, 15581
 15582, 15583, 15584, 15585, 15586, 15587, 15588, 15589, 15590, 15591, 15592, 15593, 15594, 15595, 15596, 15597
 15598, 15599, 15600, 15601, 15602, 15603, 15604, 15605, 15606, 15607, 15608, 15609, 15854, 15855, 15856, 15857
 15858, 15859, 15860, 15861, 15862, 15863, 15864, 15865, 15866, 15867, 15868, 15869, 15870, 15871, 15872, 15944
 15945, 15946, 15947, 15948, 15949, 15950, 15951, 15952, 15953, 15954, 15955, 15956, 15957, 15958, 15959, 15960
 15961, 15962, 16131, 16132, 16133, 16134, 16135, 16136, 16137, 16138, 16139, 16140, 16141, 16142, 16143, 16144
 16145, 16146, 16147, 16148, 16149, 16208, 16209, 16210, 16211, 16212, 16213, 16214, 16215, 16216, 16217, 16218
 16219, 16220, 16221, 16222, 16223, 16224, 16225, 16226, 17564, 17565, 17566, 17567, 17568, 17569, 17570, 17571
 17572, 17573, 17574, 17575, 17576, 17577, 17578, 17579, 17580, 17581, 17582, 18085, 18086, 18087, 18088, 18089
 18090, 18091, 18092, 18093, 18094, 18095, 18096, 18097, 18098, 18099, 18100, 18101, 18102, 18103, 18123, 18124
 18125, 18126, 18127, 18128, 18129, 18130, 18131, 18132, 18133, 18134, 18135, 18136, 18137, 18138, 18139, 18140
 18141,
*Nset, nset=Set-left, instance=Part-1-1
   161,   162,   201,   272,   279,   285,   290,   291,   304,   306,   368,   369,   370,   404,   405,   408
   409,  4732,  4733,  4734,  4735,  4736,  4737,  4738,  4739,  4740,  4741,  4742,  4743,  4744,  4745,  4746
  4747,  4748,  4749,  4750,  9931,  9932,  9933,  9934,  9935,  9936,  9937,  9938,  9939,  9940,  9941,  9942
  9943,  9944,  9945,  9946,  9947,  9948,  9949, 10182, 10183, 10184, 10185, 10186, 10187, 10188, 10189, 10190
 10191, 10192, 10193, 10194, 10195, 10196, 10197, 10198, 10199, 10200, 10246, 10247, 10248, 10249, 10250, 10251
 10252, 10253, 10254, 10255, 10256, 10257, 10258, 10259, 10260, 10261, 10262, 10263, 10264, 11360, 11361, 11362
 11363, 11364, 11365, 11366, 11367, 11368, 11369, 11370, 11371, 11372, 11373, 11374, 11375, 11376, 11377, 11378
 11379, 11380, 11381, 11382, 11383, 11384, 11385, 11386, 11387, 11388, 11389, 11390, 11391, 11392, 11393, 11394
 11395, 11396, 11397, 14442, 14443, 14444, 14445, 14446, 14447, 14448, 14449, 14450, 14451, 14452, 14453, 14454
 14455, 14456, 14457, 14458, 14459, 14460, 14500, 14501, 14502, 14503, 14504, 14505, 14506, 14507, 14508, 14509
 14510, 14511, 14512, 14513, 14514, 14515, 14516, 14517, 14518, 14629, 14630, 14631, 14632, 14633, 14634, 14635
 14636, 14637, 14638, 14639, 14640, 14641, 14642, 14643, 14644, 14645, 14646, 14647, 14648, 14649, 14650, 14651
 14652, 14653, 14654, 14655, 14656, 14657, 14658, 14659, 14660, 14661, 14662, 14663, 14664, 14665, 14666, 15059
 15060, 15061, 15062, 15063, 15064, 15065, 15066, 15067, 15068, 15069, 15070, 15071, 15072, 15073, 15074, 15075
 15076, 15077, 17089, 17090, 17091, 17092, 17093, 17094, 17095, 17096, 17097, 17098, 17099, 17100, 17101, 17102
 17103, 17104, 17105, 17106, 17107, 17269, 17270, 17271, 17272, 17273, 17274, 17275, 17276, 17277, 17278, 17279
 17280, 17281, 17282, 17283, 17284, 17285, 17286, 17287, 17647, 17648, 17649, 17650, 17651, 17652, 17653, 17654
 17655, 17656, 17657, 17658, 17659, 17660, 17661, 17662, 17663, 17664, 17665, 18027, 18028, 18029, 18030, 18031
 18032, 18033, 18034, 18035, 18036, 18037, 18038, 18039, 18040, 18041, 18042, 18043, 18044, 18045, 18142, 18143
 18144, 18145, 18146, 18147, 18148, 18149, 18150, 18151, 18152, 18153, 18154, 18155, 18156, 18157, 18158, 18159
 18160,
*Nset, nset=Set-right, instance=Part-1-1
     3,    23,    24,    27,    60,    62,   100,   177,   253,   293,   298,   339,   340,   343,   352,   355
   392,   920,   921,   922,   923,   924,   925,   926,   927,   928,   929,   930,   931,   932,   933,   934
   935,   936,   937,   938,   939,   940,   941,   942,   943,   944,   945,   946,   947,   948,   949,   950
   951,   952,   953,   954,   955,   956,   957,  2026,  2027,  2028,  2029,  2030,  2031,  2032,  2033,  2034
  2035,  2036,  2037,  2038,  2039,  2040,  2041,  2042,  2043,  2044,  2058,  2059,  2060,  2061,  2062,  2063
  2064,  2065,  2066,  2067,  2068,  2069,  2070,  2071,  2072,  2073,  2074,  2075,  2076,  5330,  5331,  5332
  5333,  5334,  5335,  5336,  5337,  5338,  5339,  5340,  5341,  5342,  5343,  5344,  5345,  5346,  5347,  5348
  5375,  5376,  5377,  5378,  5379,  5380,  5381,  5382,  5383,  5384,  5385,  5386,  5387,  5388,  5389,  5390
  5391,  5392,  5393,  5394,  5395,  5396,  5397,  5398,  5399,  5400,  5401,  5402,  5403,  5404,  5405,  5406
  5407,  5408,  5409,  5410,  5411,  5412, 10656, 10657, 10658, 10659, 10660, 10661, 10662, 10663, 10664, 10665
 10666, 10667, 10668, 10669, 10670, 10671, 10672, 10673, 10674, 12997, 12998, 12999, 13000, 13001, 13002, 13003
 13004, 13005, 13006, 13007, 13008, 13009, 13010, 13011, 13012, 13013, 13014, 13015, 13068, 13069, 13070, 13071
 13072, 13073, 13074, 13075, 13076, 13077, 13078, 13079, 13080, 13081, 13082, 13083, 13084, 13085, 13086, 13652
 13653, 13654, 13655, 13656, 13657, 13658, 13659, 13660, 13661, 13662, 13663, 13664, 13665, 13666, 13667, 13668
 13669, 13670, 14853, 14854, 14855, 14856, 14857, 14858, 14859, 14860, 14861, 14862, 14863, 14864, 14865, 14866
 14867, 14868, 14869, 14870, 14871, 14872, 14873, 14874, 14875, 14876, 14877, 14878, 14879, 14880, 14881, 14882
 14883, 14884, 14885, 14886, 14887, 14888, 14889, 14890, 14962, 14963, 14964, 14965, 14966, 14967, 14968, 14969
 14970, 14971, 14972, 14973, 14974, 14975, 14976, 14977, 14978, 14979, 14980, 16336, 16337, 16338, 16339, 16340
 16341, 16342, 16343, 16344, 16345, 16346, 16347, 16348, 16349, 16350, 16351, 16352, 16353, 16354, 17879, 17880
 17881, 17882, 17883, 17884, 17885, 17886, 17887, 17888, 17889, 17890, 17891, 17892, 17893, 17894, 17895, 17896
 17897,
*Nset, nset=Set-top, instance=Part-1-1
     2,     3,    18,    21,   170,   171,   175,   188,   203,   292,   301,   302,   306,   433,   434,   435
   436,   437,   438,   439,   440,   441,   442,   443,   444,   445,   446,   447,   448,   449,   450,   451
   805,   806,   807,   808,   809,   810,   811,   812,   813,   814,   815,   816,   817,   818,   819,   820
   821,   822,   823,   850,   851,   852,   853,   854,   855,   856,   857,   858,   859,   860,   861,   862
   863,   864,   865,   866,   867,   868,  4989,  4990,  4991,  4992,  4993,  4994,  4995,  4996,  4997,  4998
  4999,  5000,  5001,  5002,  5003,  5004,  5005,  5006,  5007,  5285,  5286,  5287,  5288,  5289,  5290,  5291
  5292,  5293,  5294,  5295,  5296,  5297,  5298,  5299,  5300,  5301,  5302,  5303, 10438, 10439, 10440, 10441
 10442, 10443, 10444, 10445, 10446, 10447, 10448, 10449, 10450, 10451, 10452, 10453, 10454, 10455, 10456, 10489
 10490, 10491, 10492, 10493, 10494, 10495, 10496, 10497, 10498, 10499, 10500, 10501, 10502, 10503, 10504, 10505
 10506, 10507, 10880, 10881, 10882, 10883, 10884, 10885, 10886, 10887, 10888, 10889, 10890, 10891, 10892, 10893
 10894, 10895, 10896, 10897, 10898, 11002, 11003, 11004, 11005, 11006, 11007, 11008, 11009, 11010, 11011, 11012
 11013, 11014, 11015, 11016, 11017, 11018, 11019, 11020, 11111, 11112, 11113, 11114, 11115, 11116, 11117, 11118
 11119, 11120, 11121, 11122, 11123, 11124, 11125, 11126, 11127, 11128, 11129, 15078, 15079, 15080, 15081, 15082
 15083, 15084, 15085, 15086, 15087, 15088, 15089, 15090, 15091, 15092, 15093, 15094, 15095, 15096, 15123, 15124
 15125, 15126, 15127, 15128, 15129, 15130, 15131, 15132, 15133, 15134, 15135, 15136, 15137, 15138, 15139, 15140
 15141,
*End Assembly
*Amplitude, name=Amp-1
             0.,              0.,             0.1,            1.92
** 
** MATERIALS
** 
*Material, name=Material-3
*Damage Initiation, criterion=DUCTILE
 0.0275443, 0.33333,      0.
*Damage Evolution, type=DISPLACEMENT
          0.,          0.
 0.000135464, 0.000706569
   0.0311039,   0.0107066
     0.11634,   0.0207066
    0.255845,   0.0307066
    0.449617,   0.0407066
    0.697658,   0.0507066
          1.,   0.0607066
*Density
 2.7e-09,
*Elastic
70000., 0.3
*Plastic
    134.,         0.
  135.97, 0.00282758
 137.325, 0.00445821
 138.261, 0.00654484
 138.321, 0.00864398
 138.381,  0.0107431
 138.441,  0.0128423
 138.501,  0.0149414
 138.561,  0.0170406
 138.621,  0.0191497
 138.681,  0.0212488
 138.741,   0.023348
 138.801,  0.0254471
    139.,  0.0275443
** ----------------------------------------------------------------
** 
** STEP: Step-1
** 
*Step, name=Step-1, nlgeom=YES
*Dynamic, Explicit
, 0.1
*Bulk Viscosity
0.06, 1.2
** 
** BOUNDARY CONDITIONS
** 
** Name: BC-1 Type: Displacement/Rotation
*Boundary, amplitude=Amp-1
Set-top, 1, 1
Set-top, 2, 2, 1.
Set-top, 6, 6
** Name: BC-2 Type: Displacement/Rotation
*Boundary, amplitude=Amp-1
Set-bottom, 1, 1
Set-bottom, 2, 2
Set-bottom, 6, 6
** 
** OUTPUT REQUESTS
** 
*Restart, write, number interval=1, time marks=NO
** 
** FIELD OUTPUT: F-Output-1
** 
*Output, field, number interval=200
*Node Output
RF, UT
*Element Output, directions=YES
DMICRT, LE, S, SDEG, STATUS
** 
** HISTORY OUTPUT: H-Output-1
** 
*Output, history
*Energy Output, elset=Part-1-1.AllPartSet
ALLIE, ALLKE, ALLSE
*End Step
