*Heading
** Job name: Tension_5X5 Model name: Tension_Std
** Generated by: Abaqus/CAE 2017
*Preprint, echo=NO, model=NO, history=NO, contact=NO
**
** PARTS
**
*Part, name=PART-1
*Node
1, 0.000000, 0.000000, 0.000000
2, 20.000000, 0.000000, 0.000000
3, 40.000000, 0.000000, 0.000000
4, 60.000000, 0.000000, 0.000000
5, 80.000000, 0.000000, 0.000000
6, 100.000000, 0.000000, 0.000000
7, 120.000000, 0.000000, 0.000000
8, 140.000000, 0.000000, 0.000000
9, 160.000000, 0.000000, 0.000000
10, 180.000000, 0.000000, 0.000000
11, 200.000000, 0.000000, 0.000000
12, 220.000000, 0.000000, 0.000000
13, 240.000000, 0.000000, 0.000000
14, 260.000000, 0.000000, 0.000000
15, 280.000000, 0.000000, 0.000000
16, 300.000000, 0.000000, 0.000000
17, 0.000000, 20.000000, 0.000000
18, 20.000000, 20.000000, 0.000000
19, 40.000000, 20.000000, 0.000000
20, 60.000000, 20.000000, 0.000000
** ... 7451 like lines cut

*Element, type=B21
1, 1, 2
2, 1, 17
3, 1, 257
4, 1, 4097
5, 2, 3
6, 2, 18
7, 2, 258
8, 2, 4097
9, 2, 4098
10, 3, 4
11, 3, 19
12, 3, 259
13, 3, 4098
14, 3, 4099
15, 4, 5
16, 4, 20
17, 4, 260
18, 4, 4099
19, 4, 4100
20, 5, 6
** ... 36638 like lines cut
*Elset, elset=SET-2, generate
1, 36658, 1
** Section: Section-1-SET-2  Profile: Profile-1
*Beam Section, elset=SET-2, material=ALUM, temperature=GRADIENTS, section=CIRC
0.275
0.,0.,-1.
9
*End Part
**  
**
** ASSEMBLY
**
*Assembly, name=Assembly
**  
*Instance, name=PART-1-1, part=PART-1
*End Instance
**  
*Node
1, 300, 300, 300
*Node
2, 300, 350, 300
*Node
3, 350, 300, 300
*Node
4, 300, 300, 350
*Nset, nset=m1
1
*Nset, nset=n2
2
*Nset, nset=n1
3
*Nset, nset=n3
4
*Nset, nset=TOP, instance=PART-1-1
241, 242, 243, 244, 245, 246, 247, 248, 249, 250, 
251, 252, 253, 254, 255, 256, 497, 498, 499, 500, 
501, 502, 503, 504, 505, 506, 507, 508, 509, 510, 
511, 512, 753, 754, 755, 756, 757, 758, 759, 760, 
761, 762, 763, 764, 765, 766, 767, 768, 1009, 1010, 
1011, 1012, 1013, 1014, 1015, 1016, 1017, 1018, 1019, 1020, 
1021, 1022, 1023, 1024, 1265, 1266, 1267, 1268, 1269, 1270, 
1271, 1272, 1273, 1274, 1275, 1276, 1277, 1278, 1279, 1280, 
1521, 1522, 1523, 1524, 1525, 1526, 1527, 1528, 1529, 1530, 
1531, 1532, 1533, 1534, 1535, 1536, 1777, 1778, 1779, 1780, 
1781, 1782, 1783, 1784, 1785, 1786, 1787, 1788, 1789, 1790, 
1791, 1792, 2033, 2034, 2035, 2036, 2037, 2038, 2039, 2040, 
2041, 2042, 2043, 2044, 2045, 2046, 2047, 2048, 2289, 2290, 
2291, 2292, 2293, 2294, 2295, 2296, 2297, 2298, 2299, 2300, 
2301, 2302, 2303, 2304, 2545, 2546, 2547, 2548, 2549, 2550, 
2551, 2552, 2553, 2554, 2555, 2556, 2557, 2558, 2559, 2560, 
2801, 2802, 2803, 2804, 2805, 2806, 2807, 2808, 2809, 2810, 
2811, 2812, 2813, 2814, 2815, 2816, 3057, 3058, 3059, 3060, 
3061, 3062, 3063, 3064, 3065, 3066, 3067, 3068, 3069, 3070, 
3071, 3072, 3313, 3314, 3315, 3316, 3317, 3318, 3319, 3320, 
** ... 6 like lines cut
*Nset, nset=BOTTOM, instance=PART-1-1
1, 2, 3, 4, 5, 6, 7, 8, 9, 10, 
11, 12, 13, 14, 15, 16, 257, 258, 259, 260, 
261, 262, 263, 264, 265, 266, 267, 268, 269, 270, 
271, 272, 513, 514, 515, 516, 517, 518, 519, 520, 
521, 522, 523, 524, 525, 526, 527, 528, 769, 770, 
771, 772, 773, 774, 775, 776, 777, 778, 779, 780, 
781, 782, 783, 784, 1025, 1026, 1027, 1028, 1029, 1030, 
1031, 1032, 1033, 1034, 1035, 1036, 1037, 1038, 1039, 1040, 
1281, 1282, 1283, 1284, 1285, 1286, 1287, 1288, 1289, 1290, 
1291, 1292, 1293, 1294, 1295, 1296, 1537, 1538, 1539, 1540, 
1541, 1542, 1543, 1544, 1545, 1546, 1547, 1548, 1549, 1550, 
1551, 1552, 1793, 1794, 1795, 1796, 1797, 1798, 1799, 1800, 
1801, 1802, 1803, 1804, 1805, 1806, 1807, 1808, 2049, 2050, 
2051, 2052, 2053, 2054, 2055, 2056, 2057, 2058, 2059, 2060, 
2061, 2062, 2063, 2064, 2305, 2306, 2307, 2308, 2309, 2310, 
2311, 2312, 2313, 2314, 2315, 2316, 2317, 2318, 2319, 2320, 
2561, 2562, 2563, 2564, 2565, 2566, 2567, 2568, 2569, 2570, 
2571, 2572, 2573, 2574, 2575, 2576, 2817, 2818, 2819, 2820, 
2821, 2822, 2823, 2824, 2825, 2826, 2827, 2828, 2829, 2830, 
2831, 2832, 3073, 3074, 3075, 3076, 3077, 3078, 3079, 3080, 
** ... 6 like lines cut
*Nset, nset=LEFT, instance=PART-1-1
1, 17, 33, 49, 65, 81, 97, 113, 129, 145, 
161, 177, 193, 209, 225, 241, 257, 273, 289, 305, 
321, 337, 353, 369, 385, 401, 417, 433, 449, 465, 
481, 497, 513, 529, 545, 561, 577, 593, 609, 625, 
641, 657, 673, 689, 705, 721, 737, 753, 769, 785, 
801, 817, 833, 849, 865, 881, 897, 913, 929, 945, 
961, 977, 993, 1009, 1025, 1041, 1057, 1073, 1089, 1105, 
1121, 1137, 1153, 1169, 1185, 1201, 1217, 1233, 1249, 1265, 
1281, 1297, 1313, 1329, 1345, 1361, 1377, 1393, 1409, 1425, 
1441, 1457, 1473, 1489, 1505, 1521, 1537, 1553, 1569, 1585, 
1601, 1617, 1633, 1649, 1665, 1681, 1697, 1713, 1729, 1745, 
1761, 1777, 1793, 1809, 1825, 1841, 1857, 1873, 1889, 1905, 
1921, 1937, 1953, 1969, 1985, 2001, 2017, 2033, 2049, 2065, 
2081, 2097, 2113, 2129, 2145, 2161, 2177, 2193, 2209, 2225, 
2241, 2257, 2273, 2289, 2305, 2321, 2337, 2353, 2369, 2385, 
2401, 2417, 2433, 2449, 2465, 2481, 2497, 2513, 2529, 2545, 
2561, 2577, 2593, 2609, 2625, 2641, 2657, 2673, 2689, 2705, 
2721, 2737, 2753, 2769, 2785, 2801, 2817, 2833, 2849, 2865, 
2881, 2897, 2913, 2929, 2945, 2961, 2977, 2993, 3009, 3025, 
3041, 3057, 3073, 3089, 3105, 3121, 3137, 3153, 3169, 3185, 
** ... 6 like lines cut
*Nset, nset=RIGHT, instance=PART-1-1
16, 32, 48, 64, 80, 96, 112, 128, 144, 160, 
176, 192, 208, 224, 240, 256, 272, 288, 304, 320, 
336, 352, 368, 384, 400, 416, 432, 448, 464, 480, 
496, 512, 528, 544, 560, 576, 592, 608, 624, 640, 
656, 672, 688, 704, 720, 736, 752, 768, 784, 800, 
816, 832, 848, 864, 880, 896, 912, 928, 944, 960, 
976, 992, 1008, 1024, 1040, 1056, 1072, 1088, 1104, 1120, 
1136, 1152, 1168, 1184, 1200, 1216, 1232, 1248, 1264, 1280, 
1296, 1312, 1328, 1344, 1360, 1376, 1392, 1408, 1424, 1440, 
1456, 1472, 1488, 1504, 1520, 1536, 1552, 1568, 1584, 1600, 
1616, 1632, 1648, 1664, 1680, 1696, 1712, 1728, 1744, 1760, 
1776, 1792, 1808, 1824, 1840, 1856, 1872, 1888, 1904, 1920, 
1936, 1952, 1968, 1984, 2000, 2016, 2032, 2048, 2064, 2080, 
2096, 2112, 2128, 2144, 2160, 2176, 2192, 2208, 2224, 2240, 
2256, 2272, 2288, 2304, 2320, 2336, 2352, 2368, 2384, 2400, 
2416, 2432, 2448, 2464, 2480, 2496, 2512, 2528, 2544, 2560, 
2576, 2592, 2608, 2624, 2640, 2656, 2672, 2688, 2704, 2720, 
2736, 2752, 2768, 2784, 2800, 2816, 2832, 2848, 2864, 2880, 
2896, 2912, 2928, 2944, 2960, 2976, 2992, 3008, 3024, 3040, 
3056, 3072, 3088, 3104, 3120, 3136, 3152, 3168, 3184, 3200, 
** ... 6 like lines cut
*Nset, nset=FRONT, instance=PART-1-1
3841, 3842, 3843, 3844, 3845, 3846, 3847, 3848, 3849, 3850, 
3851, 3852, 3853, 3854, 3855, 3856, 3857, 3858, 3859, 3860, 
3861, 3862, 3863, 3864, 3865, 3866, 3867, 3868, 3869, 3870, 
3871, 3872, 3873, 3874, 3875, 3876, 3877, 3878, 3879, 3880, 
3881, 3882, 3883, 3884, 3885, 3886, 3887, 3888, 3889, 3890, 
3891, 3892, 3893, 3894, 3895, 3896, 3897, 3898, 3899, 3900, 
3901, 3902, 3903, 3904, 3905, 3906, 3907, 3908, 3909, 3910, 
3911, 3912, 3913, 3914, 3915, 3916, 3917, 3918, 3919, 3920, 
3921, 3922, 3923, 3924, 3925, 3926, 3927, 3928, 3929, 3930, 
3931, 3932, 3933, 3934, 3935, 3936, 3937, 3938, 3939, 3940, 
3941, 3942, 3943, 3944, 3945, 3946, 3947, 3948, 3949, 3950, 
3951, 3952, 3953, 3954, 3955, 3956, 3957, 3958, 3959, 3960, 
3961, 3962, 3963, 3964, 3965, 3966, 3967, 3968, 3969, 3970, 
3971, 3972, 3973, 3974, 3975, 3976, 3977, 3978, 3979, 3980, 
3981, 3982, 3983, 3984, 3985, 3986, 3987, 3988, 3989, 3990, 
3991, 3992, 3993, 3994, 3995, 3996, 3997, 3998, 3999, 4000, 
4001, 4002, 4003, 4004, 4005, 4006, 4007, 4008, 4009, 4010, 
4011, 4012, 4013, 4014, 4015, 4016, 4017, 4018, 4019, 4020, 
4021, 4022, 4023, 4024, 4025, 4026, 4027, 4028, 4029, 4030, 
4031, 4032, 4033, 4034, 4035, 4036, 4037, 4038, 4039, 4040, 
** ... 6 like lines cut
*Nset, nset=BACK, instance=PART-1-1
1, 2, 3, 4, 5, 6, 7, 8, 9, 10, 
11, 12, 13, 14, 15, 16, 17, 18, 19, 20, 
21, 22, 23, 24, 25, 26, 27, 28, 29, 30, 
31, 32, 33, 34, 35, 36, 37, 38, 39, 40, 
41, 42, 43, 44, 45, 46, 47, 48, 49, 50, 
51, 52, 53, 54, 55, 56, 57, 58, 59, 60, 
61, 62, 63, 64, 65, 66, 67, 68, 69, 70, 
71, 72, 73, 74, 75, 76, 77, 78, 79, 80, 
81, 82, 83, 84, 85, 86, 87, 88, 89, 90, 
91, 92, 93, 94, 95, 96, 97, 98, 99, 100, 
101, 102, 103, 104, 105, 106, 107, 108, 109, 110, 
111, 112, 113, 114, 115, 116, 117, 118, 119, 120, 
121, 122, 123, 124, 125, 126, 127, 128, 129, 130, 
131, 132, 133, 134, 135, 136, 137, 138, 139, 140, 
141, 142, 143, 144, 145, 146, 147, 148, 149, 150, 
151, 152, 153, 154, 155, 156, 157, 158, 159, 160, 
161, 162, 163, 164, 165, 166, 167, 168, 169, 170, 
171, 172, 173, 174, 175, 176, 177, 178, 179, 180, 
181, 182, 183, 184, 185, 186, 187, 188, 189, 190, 
191, 192, 193, 194, 195, 196, 197, 198, 199, 200, 
** ... 6 like lines cut
*Surface, type=NODE, name=RIGHT_CNS_, internal
RIGHT, 1
*Surface, type=NODE, name=TOP_CNS_, internal
TOP, 1
** Constraint: eqX1
*Equation
2
RIGHT, 1, 1.
m1, 1, -1.
** Constraint: eqY1
*Equation
2
TOP, 2, 1.
m1, 2, -1.
** Constraint: eqZ1
*Equation
2
FRONT, 3, 1.
m1, 3, -1.
** Constraint: eqX2
*Equation
2
LEFT, 1, -1.
m1, 1, -1.
** Constraint: eqY2
*Equation
2
BOTTOM, 2, -1.
m1, 2, -1.
** Constraint: eqZ2
*Equation
2
BACK, 3, -1.
m1, 3, -1.
*MPC, user, mode=DOF
1, n1, m1, n2
1, n3, m1, n2
*Spring, elset=Springs/Dashpots-1-spring

20.79
*Element, type=SpringA, elset=Springs/Dashpots-1-spring
1, 1, 2
2, 1, 3
3, 1, 4
*End Assembly
*Amplitude, name=AMP-1
             0.,              0.,            0.1,             25,            
** 
** MATERIALS
** 
*Material, name=ALUM
*Density
 2.7e-09,
*Elastic
71300., 0.3
*Plastic
  168.,         0.
 168.7, 0.00198028
 178.9, 0.00349223
 189.2,  0.0059659
 199.7, 0.00990404
 210.5,  0.0160172
 221.6,  0.0252826
 233.3,  0.0390052
 245.7,   0.058868
  259.,  0.0869541
 273.6,   0.125711
  290.,   0.177828
** ----------------------------------------------------------------
** 
** STEP: Step-1
** 
*Step, name=Step-1, nlgeom=YES, inc=1000
*Static
1e-6, 1., 1e-20, 0.01
** 
** BOUNDARY CONDITIONS
** Name: BC-1 Type: Displacement/Rotation
*Boundary
n2, 2, 2, 150
** OUTPUT REQUESTS
** 
*Restart, write, frequency=0
** 
** FIELD OUTPUT: F-Output-1
** 
*Output, field
*Node Output
RF, U
*Element Output, directions=YES
LE, PE, PEEQ, S
** 
** HISTORY OUTPUT: H-Output-1
** 
*Output, history
*Energy Output
ALLIE, ALLKE
*End Step
