*Heading
** Job name: Tension_5X5 Model name: Tension_Std
** Generated by: Abaqus/CAE 2017
*Preprint, echo=NO, model=NO, history=NO, contact=NO
**
** PARTS
**
*Part, name=PART-1
*Node
1, 0.000000, 0.000000, 0.000000
2, 20.000000, 0.000000, 0.000000
3, 40.000000, 0.000000, 0.000000
4, 60.000000, 0.000000, 0.000000
5, 80.000000, 0.000000, 0.000000
6, 100.000000, 0.000000, 0.000000
7, 120.000000, 0.000000, 0.000000
8, 140.000000, 0.000000, 0.000000
9, 160.000000, 0.000000, 0.000000
10, 180.000000, 0.000000, 0.000000
11, 200.000000, 0.000000, 0.000000
12, 220.000000, 0.000000, 0.000000
13, 240.000000, 0.000000, 0.000000
14, 260.000000, 0.000000, 0.000000
15, 280.000000, 0.000000, 0.000000
16, 300.000000, 0.000000, 0.000000
17, 320.000000, 0.000000, 0.000000
18, 340.000000, 0.000000, 0.000000
19, 360.000000, 0.000000, 0.000000
20, 380.000000, 0.000000, 0.000000
** ... 22546 like lines cut

*Element, type=B21
1, 1, 1283
2, 1283, 1284
3, 1284, 1285
4, 1285, 1286
5, 1286, 2
6, 1, 1287
7, 1287, 1288
8, 1288, 1289
9, 1289, 1290
10, 1290, 22
11, 1, 1291
12, 1291, 1292
13, 1292, 1293
14, 1293, 1294
15, 1294, 442
16, 1, 1295
17, 1295, 1296
18, 1296, 1297
19, 1297, 1298
20, 1298, 883
** ... 26585 like lines cut
*Elset, elset=SET-2, generate
1, 26605, 1
** Section: Section-1-SET-2  Profile: Profile-1
*Beam Section, elset=SET-2, material=ALUM, temperature=GRADIENTS, section=CIRC
0.264
0.,-1.,-1.
9
*End Part
**  
**
** ASSEMBLY
**
*Assembly, name=Assembly
**  
*Instance, name=PART-1-1, part=PART-1
*End Instance
**  
*Node
1, 400, 400, 20
*Node
2, 400, 450, 20
*Node
3, 450, 400, 20
*Node
4, 400, 400, 70
*Nset, nset=m1
1
*Nset, nset=n2
2
*Nset, nset=n1
3
*Nset, nset=n3
4
*Nset, nset=TOP, instance=PART-1-1
421, 422, 423, 424, 425, 426, 427, 428, 429, 430, 
431, 432, 433, 434, 435, 436, 437, 438, 439, 440, 
441, 862, 863, 864, 865, 866, 867, 868, 869, 870, 
871, 872, 873, 874, 875, 876, 877, 878, 879, 880, 
881, 882, 12483, 12484, 12485, 12486, 12487, 12488, 12489, 12490, 
12495, 12496, 12497, 12498, 12499, 12500, 12501, 12502, 12511, 12512, 
12513, 12514, 12515, 12516, 12517, 12518, 12527, 12528, 12529, 12530, 
12531, 12532, 12533, 12534, 12543, 12544, 12545, 12546, 12547, 12548, 
12549, 12550, 12559, 12560, 12561, 12562, 12563, 12564, 12565, 12566, 
12575, 12576, 12577, 12578, 12579, 12580, 12581, 12582, 12591, 12592, 
12593, 12594, 12595, 12596, 12597, 12598, 12607, 12608, 12609, 12610, 
12611, 12612, 12613, 12614, 12623, 12624, 12625, 12626, 12627, 12628, 
12629, 12630, 12639, 12640, 12641, 12642, 12643, 12644, 12645, 12646, 
12655, 12656, 12657, 12658, 12659, 12660, 12661, 12662, 12671, 12672, 
12673, 12674, 12675, 12676, 12677, 12678, 12687, 12688, 12689, 12690, 
12691, 12692, 12693, 12694, 12703, 12704, 12705, 12706, 12707, 12708, 
12709, 12710, 12719, 12720, 12721, 12722, 12723, 12724, 12725, 12726, 
12735, 12736, 12737, 12738, 12739, 12740, 12741, 12742, 12751, 12752, 
12753, 12754, 12755, 12756, 12757, 12758, 12767, 12768, 12769, 12770, 
12771, 12772, 12773, 12774, 12783, 12784, 12785, 12786, 12787, 12788, 
** ... 9 like lines cut
*Nset, nset=BOTTOM, instance=PART-1-1
1, 2, 3, 4, 5, 6, 7, 8, 9, 10, 
11, 12, 13, 14, 15, 16, 17, 18, 19, 20, 
21, 442, 443, 444, 445, 446, 447, 448, 449, 450, 
451, 452, 453, 454, 455, 456, 457, 458, 459, 460, 
461, 462, 1283, 1284, 1285, 1286, 1291, 1292, 1293, 1294, 
1299, 1300, 1301, 1302, 1307, 1308, 1309, 1310, 1319, 1320, 
1321, 1322, 1327, 1328, 1329, 1330, 1339, 1340, 1341, 1342, 
1347, 1348, 1349, 1350, 1359, 1360, 1361, 1362, 1367, 1368, 
1369, 1370, 1379, 1380, 1381, 1382, 1387, 1388, 1389, 1390, 
1399, 1400, 1401, 1402, 1407, 1408, 1409, 1410, 1419, 1420, 
1421, 1422, 1427, 1428, 1429, 1430, 1439, 1440, 1441, 1442, 
1447, 1448, 1449, 1450, 1459, 1460, 1461, 1462, 1467, 1468, 
1469, 1470, 1479, 1480, 1481, 1482, 1487, 1488, 1489, 1490, 
1499, 1500, 1501, 1502, 1507, 1508, 1509, 1510, 1519, 1520, 
1521, 1522, 1527, 1528, 1529, 1530, 1539, 1540, 1541, 1542, 
1547, 1548, 1549, 1550, 1559, 1560, 1561, 1562, 1567, 1568, 
1569, 1570, 1579, 1580, 1581, 1582, 1587, 1588, 1589, 1590, 
1599, 1600, 1601, 1602, 1607, 1608, 1609, 1610, 1619, 1620, 
1621, 1622, 1627, 1628, 1629, 1630, 1639, 1640, 1641, 1642, 
1647, 1648, 1649, 1650, 1659, 1660, 1661, 1662, 1667, 1668, 
** ... 9 like lines cut
*Nset, nset=LEFT, instance=PART-1-1
1, 22, 43, 64, 85, 106, 127, 148, 169, 190, 
211, 232, 253, 274, 295, 316, 337, 358, 379, 400, 
421, 442, 463, 484, 505, 526, 547, 568, 589, 610, 
631, 652, 673, 694, 715, 736, 757, 778, 799, 820, 
841, 862, 1287, 1288, 1289, 1290, 1291, 1292, 1293, 1294, 
1695, 1696, 1697, 1698, 1699, 1700, 1701, 1702, 2263, 2264, 
2265, 2266, 2267, 2268, 2269, 2270, 2831, 2832, 2833, 2834, 
2835, 2836, 2837, 2838, 3399, 3400, 3401, 3402, 3403, 3404, 
3405, 3406, 3967, 3968, 3969, 3970, 3971, 3972, 3973, 3974, 
4535, 4536, 4537, 4538, 4539, 4540, 4541, 4542, 5103, 5104, 
5105, 5106, 5107, 5108, 5109, 5110, 5671, 5672, 5673, 5674, 
5675, 5676, 5677, 5678, 6239, 6240, 6241, 6242, 6243, 6244, 
6245, 6246, 6807, 6808, 6809, 6810, 6811, 6812, 6813, 6814, 
7375, 7376, 7377, 7378, 7379, 7380, 7381, 7382, 7943, 7944, 
7945, 7946, 7947, 7948, 7949, 7950, 8511, 8512, 8513, 8514, 
8515, 8516, 8517, 8518, 9079, 9080, 9081, 9082, 9083, 9084, 
9085, 9086, 9647, 9648, 9649, 9650, 9651, 9652, 9653, 9654, 
10215, 10216, 10217, 10218, 10219, 10220, 10221, 10222, 10783, 10784, 
10785, 10786, 10787, 10788, 10789, 10790, 11351, 11352, 11353, 11354, 
11355, 11356, 11357, 11358, 11919, 11920, 11921, 11922, 11923, 11924, 
** ... 9 like lines cut
*Nset, nset=RIGHT, instance=PART-1-1
21, 42, 63, 84, 105, 126, 147, 168, 189, 210, 
231, 252, 273, 294, 315, 336, 357, 378, 399, 420, 
441, 462, 483, 504, 525, 546, 567, 588, 609, 630, 
651, 672, 693, 714, 735, 756, 777, 798, 819, 840, 
861, 882, 1679, 1680, 1681, 1682, 1683, 1684, 1685, 1686, 
2243, 2244, 2245, 2246, 2247, 2248, 2249, 2250, 2811, 2812, 
2813, 2814, 2815, 2816, 2817, 2818, 3379, 3380, 3381, 3382, 
3383, 3384, 3385, 3386, 3947, 3948, 3949, 3950, 3951, 3952, 
3953, 3954, 4515, 4516, 4517, 4518, 4519, 4520, 4521, 4522, 
5083, 5084, 5085, 5086, 5087, 5088, 5089, 5090, 5651, 5652, 
5653, 5654, 5655, 5656, 5657, 5658, 6219, 6220, 6221, 6222, 
6223, 6224, 6225, 6226, 6787, 6788, 6789, 6790, 6791, 6792, 
6793, 6794, 7355, 7356, 7357, 7358, 7359, 7360, 7361, 7362, 
7923, 7924, 7925, 7926, 7927, 7928, 7929, 7930, 8491, 8492, 
8493, 8494, 8495, 8496, 8497, 8498, 9059, 9060, 9061, 9062, 
9063, 9064, 9065, 9066, 9627, 9628, 9629, 9630, 9631, 9632, 
9633, 9634, 10195, 10196, 10197, 10198, 10199, 10200, 10201, 10202, 
10763, 10764, 10765, 10766, 10767, 10768, 10769, 10770, 11331, 11332, 
11333, 11334, 11335, 11336, 11337, 11338, 11899, 11900, 11901, 11902, 
11903, 11904, 11905, 11906, 12467, 12468, 12469, 12470, 12471, 12472, 
** ... 9 like lines cut
*Nset, nset=FRONT, instance=PART-1-1
442, 443, 444, 445, 446, 447, 448, 449, 450, 451, 
452, 453, 454, 455, 456, 457, 458, 459, 460, 461, 
462, 463, 464, 465, 466, 467, 468, 469, 470, 471, 
472, 473, 474, 475, 476, 477, 478, 479, 480, 481, 
482, 483, 484, 485, 486, 487, 488, 489, 490, 491, 
492, 493, 494, 495, 496, 497, 498, 499, 500, 501, 
502, 503, 504, 505, 506, 507, 508, 509, 510, 511, 
512, 513, 514, 515, 516, 517, 518, 519, 520, 521, 
522, 523, 524, 525, 526, 527, 528, 529, 530, 531, 
532, 533, 534, 535, 536, 537, 538, 539, 540, 541, 
542, 543, 544, 545, 546, 547, 548, 549, 550, 551, 
552, 553, 554, 555, 556, 557, 558, 559, 560, 561, 
562, 563, 564, 565, 566, 567, 568, 569, 570, 571, 
572, 573, 574, 575, 576, 577, 578, 579, 580, 581, 
582, 583, 584, 585, 586, 587, 588, 589, 590, 591, 
592, 593, 594, 595, 596, 597, 598, 599, 600, 601, 
602, 603, 604, 605, 606, 607, 608, 609, 610, 611, 
612, 613, 614, 615, 616, 617, 618, 619, 620, 621, 
622, 623, 624, 625, 626, 627, 628, 629, 630, 631, 
632, 633, 634, 635, 636, 637, 638, 639, 640, 641, 
** ... 361 like lines cut
*Nset, nset=BACK, instance=PART-1-1
1, 2, 3, 4, 5, 6, 7, 8, 9, 10, 
11, 12, 13, 14, 15, 16, 17, 18, 19, 20, 
21, 22, 23, 24, 25, 26, 27, 28, 29, 30, 
31, 32, 33, 34, 35, 36, 37, 38, 39, 40, 
41, 42, 43, 44, 45, 46, 47, 48, 49, 50, 
51, 52, 53, 54, 55, 56, 57, 58, 59, 60, 
61, 62, 63, 64, 65, 66, 67, 68, 69, 70, 
71, 72, 73, 74, 75, 76, 77, 78, 79, 80, 
81, 82, 83, 84, 85, 86, 87, 88, 89, 90, 
91, 92, 93, 94, 95, 96, 97, 98, 99, 100, 
101, 102, 103, 104, 105, 106, 107, 108, 109, 110, 
111, 112, 113, 114, 115, 116, 117, 118, 119, 120, 
121, 122, 123, 124, 125, 126, 127, 128, 129, 130, 
131, 132, 133, 134, 135, 136, 137, 138, 139, 140, 
141, 142, 143, 144, 145, 146, 147, 148, 149, 150, 
151, 152, 153, 154, 155, 156, 157, 158, 159, 160, 
161, 162, 163, 164, 165, 166, 167, 168, 169, 170, 
171, 172, 173, 174, 175, 176, 177, 178, 179, 180, 
181, 182, 183, 184, 185, 186, 187, 188, 189, 190, 
191, 192, 193, 194, 195, 196, 197, 198, 199, 200, 
** ... 361 like lines cut
*Surface, type=NODE, name=RIGHT_CNS_, internal
RIGHT, 1
*Surface, type=NODE, name=TOP_CNS_, internal
TOP, 1
** Constraint: eqX1
*Equation
2
RIGHT, 1, 1.
m1, 1, -1.
** Constraint: eqY1
*Equation
2
TOP, 2, 1.
m1, 2, -1.
** Constraint: eqZ1
*Equation
2
FRONT, 3, 1.
m1, 3, -1.
** Constraint: eqX2
*Equation
2
LEFT, 1, -1.
m1, 1, -1.
** Constraint: eqY2
*Equation
2
BOTTOM, 2, -1.
m1, 2, -1.
** Constraint: eqZ2
*Equation
2
BACK, 3, -1.
m1, 3, -1.
*MPC, user, mode=DOF
1, n1, m1, n2
1, n3, m1, n2
*Spring, elset=Springs/Dashpots-1-spring

277.2
*Element, type=SpringA, elset=Springs/Dashpots-1-spring
1, 1, 2
2, 1, 3
3, 1, 4
*End Assembly
*Amplitude, name=AMP-1
             0.,              0.,            0.1,             25,            
** 
** MATERIALS
** 
*Material, name=ALUM
*Density
 2.7e-09,
*Elastic
71300., 0.3
*Plastic
  168.,         0.
 168.7, 0.00198028
 178.9, 0.00349223
 189.2,  0.0059659
 199.7, 0.00990404
 210.5,  0.0160172
 221.6,  0.0252826
 233.3,  0.0390052
 245.7,   0.058868
  259.,  0.0869541
 273.6,   0.125711
  290.,   0.177828
** ----------------------------------------------------------------
** 
** STEP: Step-1
** 
*Step, name=Step-1, nlgeom=YES, inc=1000
*Static
1e-6, 1., 1e-20, 0.01
** 
** BOUNDARY CONDITIONS
** Name: BC-1 Type: Displacement/Rotation
*Boundary
n2, 2, 2, 200
** OUTPUT REQUESTS
** 
*Restart, write, frequency=0
** 
** FIELD OUTPUT: F-Output-1
** 
*Output, field
*Node Output
RF, U
*Element Output, directions=YES
LE, PE, PEEQ, S
** 
** HISTORY OUTPUT: H-Output-1
** 
*Output, history
*Energy Output
ALLIE, ALLKE
*End Step
